Version 4
SHEET 1 880 680
WIRE 176 48 112 48
WIRE 272 48 176 48
WIRE 336 48 272 48
WIRE 112 96 112 48
WIRE 176 96 176 48
WIRE 272 96 272 48
WIRE 336 96 336 48
WIRE 112 208 112 160
WIRE 176 208 176 160
WIRE 176 208 112 208
WIRE 272 208 272 160
WIRE 272 208 176 208
WIRE 336 208 336 160
WIRE 336 208 272 208
SYMBOL polcap 160 96 R0
WINDOW 3 24 56 Left 2
SYMATTR Value 10µ
SYMATTR InstName C1
SYMATTR Description Capacitor
SYMATTR Type cap
SYMATTR SpiceLine V=6.3 Irms=0 Rser=4 Lser=0 mfg="AVX" pn="TAJA106M006" type="Tantalum"
SYMBOL varactor 96 96 R0
SYMATTR InstName D1
SYMBOL zener 256 96 R0
SYMATTR InstName D2
SYMBOL schottky 320 96 R0
SYMATTR InstName D3
