Version 4
SHEET 1 880 680
FLAG 1 2 3
FLAG 1 2 


VERSION
SYMBOL LED -320 -496 R0
SYMATTR InstName D1
SYMATTR 
Value
 LXK2-PW14


SYMATTR Description Diode
SYMATTR Type 



diode
SYMBOL diode -432 -480 R0
SYMATTR InstName D2
SYMATTR Value DAP222M
