Version 4
SHEET 1 880 680
SYMBOL pmos -160 -160 R0
SYMATTR InstName M1
SYMATTR Value BSS84
