Version 4
SHEET 1 880 680
WIRE 160 96 48 96
WIRE 336 96 240 96
WIRE 448 96 336 96
WIRE 48 160 48 96
WIRE 336 160 336 96
WIRE 448 160 448 96
WIRE 48 256 48 240
WIRE 336 256 336 224
WIRE 336 256 48 256
WIRE 448 256 448 224
WIRE 448 256 336 256
WIRE 48 304 48 256
FLAG 48 304 0
SYMBOL polcap 320 160 R0
SYMATTR InstName C1
SYMBOL voltage 48 144 R0
SYMATTR InstName V1
SYMBOL res 256 80 R90
WINDOW 0 0 56 VBottom 2
WINDOW 3 32 56 VTop 2
SYMATTR InstName R1
SYMBOL polcap 464 224 R180
WINDOW 0 24 56 Left 2
WINDOW 3 24 8 Left 2
SYMATTR InstName C2
SYMATTR Value 1µ
SYMATTR Description Capacitor
SYMATTR Type cap
SYMATTR SpiceLine V=16 Irms=0 Rser=11 Lser=0 mfg="AVX" pn="TAJA105K016" type="Tantalum"
