Version 4
SHEET 1 2068 1956
WIRE -368 -16 -688 -16
SYMBOL res -384 32 R0
SYMATTR InstName R1
FLAG 123 123 haiai
SYMBOL res 256 32 R0
SYMATTR InstName 
