Version 4
SHEET 1 880 680
WIRE 208 224 208 96
WIRE 208 224 128 224
WIRE 320 224 208 224
