Version 4
SHEET 1 880 680
SYMBOL ind2 -208 -288 R0
SYMATTR InstName L1
SYMATTR Type ind
SYMATTR Value E
SYMATTR SpiceLine Ipk=0.6 Rser=0.599 Rpar=119100 Cpar=2.84p mfg="Bourns, Inc." pn="SDE0604A-121K"
