Version 4
SHEET 1 880 680
SYMBOL cap -96 -48 R0
SYMATTR InstName C1
SYMATTR Value 10
SYMATTR SpiceLine V=6.3 Irms=z Rser=0.0034 Lser=840p Rpar=a Cpar=a mfg="Wrth Elektronik" pn="885012108002 WCAP-CSGP 1206 " type="X5R"
