Version 4
SHEET 1 880 680
FLAG 1 2 VERSION
SYMBOL LED -320 -496 R0
SYMATTR Type diode
SYMATTR InstName D1
SYMATTR Value SYMBOL
SYMATTR Description 
Diode
SYMBOL diode -432      -480 R0
SYMATTR InstName SHEET
SYMATTR Value DAP222M
SYMBOL schottky -368      -272 R0
SYMATTR InstName    D3
SYMATTR Value 1N5817
SYMATTR Description Diode
SYMATTR Type diode