Version 4
SHEET 1 880 680
WIRE -16 -368 -304 -368
SYMBOL res -32 -384 R0
SYMATTR InstName R1
SYMBOL res -320 -384 R0
SYMATTR InstName R2