Version 4
SHEET 1 880 680
WIRE -112 -400 -272 -400
WIRE 64 -400 -32 -400
WIRE -272 -352 -272 -400
WIRE 64 -352 64 -400
WIRE -272 -144 -272 -272
WIRE -144 -144 -272 -144
WIRE 64 -144 64 -272
WIRE 64 -144 -64 -144
SYMBOL voltage -272 -368 R0
SYMATTR InstName V1
SYMBOL res -16 -416 R90
WINDOW 0 0 56 VBottom 2
WINDOW 3 32 56 VTop 2
SYMATTR InstName R1
SYMBOL voltage 64 -256 R180
WINDOW 0 24 96 Left 2
WINDOW 3 24 16 Left 2
SYMATTR InstName V2
SYMBOL voltage -48 -144 M270
WINDOW 0 32 56 VTop 2
WINDOW 3 -32 56 VBottom 2
SYMATTR InstName V3
