Version 4
SHEET 1 880 680
FLAG -272 -288 test
FLAG -176 -288 0
IOPIN -176 -288 Out
SYMBOL ind2 -208 -288 R0
WINDOW 3 102 80 Right 2
SYMATTR InstName L1
SYMATTR Type ind
SYMATTR Value 6.8µ
SYMATTR SpiceLine pippo=1.2 Rser=0.18 Rpar=180500 Cpar=0 mfg="Bourns, Inc." pn="SDR0302-6R8ML"
SYMBOL diode -256 -272 R0
SYMATTR InstName D1
SYMATTR Value 1N4148
