Version 4
SHEET 1 880 680
SYMBOL pmos -160 -160 R0
SYMATTR InstName M1
SYMATTR Value BSS84
SYMBOL res 0 -160 R0
SYMATTR InstName R1
SYMBOL res -96 -288 R0
SYMATTR InstName R2
SYMBOL res 0 -288 R0
SYMATTR InstName R3
SYMBOL cap 160 -272 R0
SYMATTR InstName C1
SYMBOL cap 112 -112 R0
SYMATTR InstName C2
SYMBOL polcap 80 -320 R0
WINDOW 3 24 56 Left 2
SYMATTR InstName C3
SYMATTR Value 150
SYMATTR Description Capacitor
SYMATTR Type cap
SYMATTR SpiceLine V=2 Irms=3.28634 Rser=0.025 Lser=0 mfg="KEMET" pn="A700V157M002ATE025" type="Al electrolytic"
