Version 4
SHEET 1 880 1280
WIRE 560 816 480 816
WIRE 704 816 640 816
WIRE 704 896 704 816
WIRE 480 912 480 816
WIRE 560 1008 528 1008
WIRE 560 1024 560 1008
WIRE 704 1024 704 976
WIRE 704 1024 640 1024
WIRE 480 1040 480 992
WIRE 528 1040 528 1008
WIRE 528 1040 480 1040
SYMBOL res 464 896 R0
SYMATTR InstName R1
SYMATTR Value 25k
SYMBOL res 688 992 M180
WINDOW 0 36 76 Left 2
WINDOW 3 36 40 Left 2
SYMATTR InstName R2
SYMBOL res 656 800 R90
WINDOW 0 0 56 VBottom 2
WINDOW 3 32 56 VTop 2
SYMATTR InstName R3
SYMATTR Value 180m
SYMBOL ind 544 1008 M90
WINDOW 0 5 56 VBottom 2
WINDOW 3 32 56 VTop 2
SYMATTR InstName L1
