Version 4
SHEET 1 880 1280
WIRE 416 688 384 688
WIRE 432 688 416 688
WIRE 528 688 512 688
WIRE 528 720 528 688
WIRE 528 736 528 720
WIRE 384 768 384 688
WIRE 384 832 384 768
WIRE 480 832 384 832
WIRE 528 832 528 800
WIRE 528 832 480 832
FLAG 384 768 a
FLAG 416 688 r
FLAG 528 720 r
FLAG 480 832 r
FLAG 384 832 0
FLAG 528 832 0
FLAG 384 688 0
FLAG 0 0 0
SYMBOL res 528 672 R90
WINDOW 0 0 56 VBottom 2
WINDOW 3 32 56 VTop 2
SYMATTR InstName R1
SYMBOL cap 512 736 R0
SYMATTR InstName C1
