V1 N001 0 V
R1 VOUT N001 R
C1 VOUT 0 C
.backanno
.end
