Version 4
SHEET 1 880 680
WIRE 192 48 128 48
WIRE 336 48 272 48
WIRE 128 128 128 48
WIRE 336 144 336 48
WIRE 128 288 128 208
WIRE 336 288 336 208
WIRE 336 288 128 288
WIRE 128 304 128 288
FLAG 128 304 0
SYMBOL res 288 32 R90
WINDOW 0 0 56 VBottom 2
WINDOW 3 32 56 VTop 2
SYMATTR InstName R1
SYMBOL voltage 128 112 R0
SYMATTR InstName V1
SYMBOL cap 320 144 R0
SYMATTR InstName ù
SYMATTR Value (/&%
