Version 4
SHEET 1 880 680
WIRE 96 192 96 128
SYMBOL res 80 176 R0
SYMATTR InstName R1
SYMATTR Value SHEET
