Version 4
SHEET 1 2068 1956
WIRE -368 -16 -688 -16
WIRE -80 -16 -368 -16
WIRE 272 -16 0 -16
WIRE 496 -16 272 -16
WIRE -368 48 -368 -16
WIRE 272 48 272 -16
WIRE -688 64 -688 -16
WIRE 496 96 496 -16
WIRE -688 304 -688 144
WIRE -368 304 -368 128
WIRE -368 304 -688 304
WIRE -80 304 -368 304
WIRE 112 304 0 304
WIRE 272 304 272 128
WIRE 272 304 112 304
WIRE 496 304 496 160
WIRE 496 304 272 304
WIRE 112 544 112 304
WIRE 112 544 32 544
WIRE 32 1232 32 544
WIRE -368 1360 -368 304
WIRE 32 1360 32 1312
WIRE 32 1360 -368 1360
SYMBOL res -384 32 R0
SYMATTR InstName R1
SYMBOL res 256 32 R0
SYMATTR InstName R2
SYMBOL res 16 -32 R90
WINDOW 0 0 56 VBottom 2
WINDOW 3 32 56 VTop 2
SYMATTR InstName R3
SYMBOL res 16 288 R90
WINDOW 0 0 56 VBottom 2
WINDOW 3 32 56 VTop 2
SYMATTR InstName R4
SYMBOL diode 480 96 R0
SYMATTR InstName D1
SYMBOL res -704 48 R0
SYMATTR InstName R5
SYMBOL res 16 1216 R0
SYMATTR InstName R6
SYMBOL polcap -624 544 R0
WINDOW 3 24 56 Left 2
SYMATTR InstName C1
SYMATTR Value 1µ
SYMATTR Description Capacitor
SYMATTR Type cap
SYMATTR SpiceLine V=16 Irmsa=0 Rser=11 Lser=0 mfg="AVX" pn="TAJA105K016" type="Tantalum"
