Version 4
SHEET 1 880 1280
SYMBOL res 336 464 R0
SYMATTR InstName R1
