Version 4
SHEET 1 1112 680
WIRE 608 -192 192 -192
WIRE 704 -192 608 -192
WIRE 1056 -192 704 -192
WIRE 1056 -160 1056 -192
WIRE 608 -144 608 -192
WIRE 608 -32 608 -64
WIRE 704 -32 608 -32
WIRE 976 -32 704 -32
WIRE 608 -16 608 -32
WIRE 976 -16 976 -32
WIRE 192 96 192 -192
WIRE 608 96 608 48
WIRE 704 96 608 96
WIRE 768 96 704 96
WIRE 896 96 832 96
WIRE 608 112 608 96
WIRE 896 112 896 96
WIRE 192 224 192 176
WIRE 608 224 608 176
WIRE 608 224 192 224
WIRE 896 224 896 192
WIRE 896 224 608 224
WIRE 976 224 976 64
WIRE 976 224 896 224
WIRE 1056 224 1056 -80
WIRE 1056 224 976 224
WIRE 192 256 192 224
FLAG 192 256 0
FLAG 704 96 3V
FLAG 704 -32 6V
FLAG 704 -192 10V
SYMBOL voltage 192 80 R0
WINDOW 123 0 0 Left 0
WINDOW 39 0 0 Left 0
SYMATTR InstName V1
SYMATTR Value 10
SYMBOL zener 624 176 R180
WINDOW 0 24 64 Left 2
WINDOW 3 24 0 Left 2
SYMATTR InstName D1
SYMBOL zener 624 48 R180
WINDOW 0 24 64 Left 2
WINDOW 3 24 0 Left 2
SYMATTR InstName D2
SYMBOL res 592 -160 R0
SYMATTR InstName R2
SYMBOL varactor 768 112 R270
WINDOW 0 32 32 VTop 2
WINDOW 3 0 32 VBottom 2
SYMATTR InstName D3
SYMBOL res 960 -32 R0
SYMATTR InstName R3
SYMBOL res 1040 -176 R0
SYMATTR InstName R4
SYMBOL res 880 96 R0
SYMATTR InstName R1
